Info: SIMULATION PARAMETERS:
Info: TIMESTEP               2
Info: NUMBER OF STEPS        0
Info: STEPS PER CYCLE        10
Info: PERIODIC CELL BASIS 1  100 0 0
Info: PERIODIC CELL BASIS 2  0 100 0
Info: PERIODIC CELL BASIS 3  0 0 100
Info: PERIODIC CELL CENTER   0 0 0
Info: WRAPPING WATERS AROUND PERIODIC BOUNDARIES ON OUTPUT.
Info: WRAPPING ALL CLUSTERS AROUND PERIODIC BOUNDARIES ON OUTPUT.
Info: FIRST LDB TIMESTEP     50
Info: LAST LDB TIMESTEP     -1
Info: HOM BACKGROUND SCALING 1
Info: PME BACKGROUND SCALING 1
Info: MIN ATOMS PER PATCH    40
Info: INITIAL TEMPERATURE    300
Info: CENTER OF MASS MOVING INITIALLY? NO
Info: REMOVING CENTER OF MASS DRIFT DURING SIMULATION
Info: DIELECTRIC             1
Info: EXCLUDE                SCALED ONE-FOUR
Info: 1-4 ELECTROSTATICS SCALED BY 1
Info: MODIFIED 1-4 VDW PARAMETERS WILL BE USED
Info: DCD FILENAME           MDequil.dcd
Info: DCD FREQUENCY          5000
Info: DCD FIRST STEP         5000
Info: DCD FILE WILL CONTAIN UNIT CELL DATA
Info: XST FILENAME           MDequil.xst
Info: XST FREQUENCY          5000
Info: NO VELOCITY DCD OUTPUT
Info: NO FORCE DCD OUTPUT
Info: OUTPUT FILENAME        MDequil
Info: BINARY OUTPUT FILES WILL BE USED
Info: RESTART FILENAME       MDequil.restart
Info: RESTART FREQUENCY      50000
Info: BINARY RESTART FILES WILL BE USED
Info: SWITCHING ACTIVE
Info: SWITCHING ON           10
Info: SWITCHING OFF          12
Info: PAIRLIST DISTANCE      14
Info: PAIRLIST SHRINK RATE   0.01
Info: PAIRLIST GROW RATE     0.01
Info: PAIRLIST TRIGGER       0.3
Info: PAIRLISTS PER CYCLE    2
Info: PAIRLISTS ENABLED
Info: MARGIN                 0
Info: HYDROGEN GROUP CUTOFF  2.5
Info: PATCH DIMENSION        16.5
Info: ENERGY OUTPUT STEPS    5000
Info: CROSSTERM ENERGY INCLUDED IN DIHEDRAL
Info: TIMING OUTPUT STEPS    50000
Info: PRESSURE OUTPUT STEPS  5000
Info: LANGEVIN DYNAMICS ACTIVE
Info: LANGEVIN TEMPERATURE   300
Info: LANGEVIN USING BBK INTEGRATOR
Info: LANGEVIN DAMPING COEFFICIENT IS 1 INVERSE PS
Info: LANGEVIN DYNAMICS NOT APPLIED TO HYDROGENS
Info: PARTICLE MESH EWALD (PME) ACTIVE
Info: PME TOLERANCE               1e-06
Info: PME EWALD COEFFICIENT       0.257952
Info: PME INTERPOLATION ORDER     4
Info: PME GRID DIMENSIONS         108 108 108
Info: PME MAXIMUM GRID SPACING    1
Info: FULL ELECTROSTATIC EVALUATION FREQUENCY      2
Info: USING VERLET I (r-RESPA) MTS SCHEME.
Info: C1 SPLITTING OF LONG RANGE ELECTROSTATICS
Info: PLACING ATOMS IN PATCHES BY HYDROGEN GROUPS
Info: RIGID BONDS TO HYDROGEN : ALL
Info:         ERROR TOLERANCE : 1e-08
Info:          MAX ITERATIONS : 100
Info: RIGID WATER USING SETTLE ALGORITHM
Info: RANDOM NUMBER SEED     1712568962
Info: USE HYDROGEN BONDS?    NO
Info: COORDINATE PDB         ../input/system.pdb
Info: STRUCTURE FILE         ../input/system.psf
Info: PARAMETER file: CHARMM format!
Info: PARAMETERS             ../input/par_all36m_prot.inp
Info: PARAMETERS             ../input/par_water_ions.inp
Info: USING ARITHMETIC MEAN TO COMBINE L-J SIGMA PARAMETERS
Info: SUMMARY OF PARAMETERS:
Info: 135 BONDS
Info: 365 ANGLES
Info: 706 DIHEDRAL
Info: 35 IMPROPER
Info: 6 CROSSTERM
Info: 68 VDW
Info: 3 VDW_PAIRS
Info: 0 NBTHOLE_PAIRS
Info: STRUCTURE SUMMARY:
Info: 2941 ATOMS
Info: 2377 BONDS
Info: 2827 ANGLES
Info: 3293 DIHEDRALS
Info: 212 IMPROPERS
Info: 74 CROSSTERMS
Info: 0 EXCLUSIONS
Info: 2339 RIGID BONDS
Info: 6484 DEGREES OF FREEDOM
Info: 1172 HYDROGEN GROUPS
Info: 4 ATOMS IN LARGEST HYDROGEN GROUP
Info: 1172 MIGRATION GROUPS
Info: 4 ATOMS IN LARGEST MIGRATION GROUP
Info: TOTAL MASS = 18833.6 amu
Info: TOTAL CHARGE = 1.0021e-06 e
Info: MASS DENSITY = 0.0312747 g/cm^3
Info: ATOM DENSITY = 0.002941 atoms/A^3
Info: ADDED 8468 IMPLICIT EXCLUSIONS
Info: NONBONDED TABLE R-SQUARED SPACING: 0.0625
Info: NONBONDED TABLE SIZE: 769 POINTS
Info: REMOVING COM VELOCITY -0.0495632 -0.0465098 0.0844576
TCL: Minimizing for 5000 steps
ETITLE: TS BOND ANGLE DIHED IMPRP ELECT VDW BOUNDARY MISC KINETIC TOTAL TEMP POTENTIAL TOTAL3 TEMPAVG PRESSURE GPRESSURE VOLUME PRESSAVG GPRESSAVG
ENERGY: 0 263.6662 351.8868 709.0855 10.7699 -5692.4918 715.0453 0.0000 0.0000 0.0000 -3642.0381 0.0000 -3642.0381 -3642.0381 0.0000 459.3182 116.1382 1000000.0000 459.3182 116.1382
ENERGY: 1000 63.2136 214.5094 671.2341 8.9052 -9937.8650 612.4337 0.0000 0.0000 0.0000 -8367.5691 0.0000 -8367.5691 -8367.5691 0.0000 393.9015 370.9843 1000000.0000 393.9015 370.9843
ENERGY: 2000 60.9519 215.4373 669.4903 10.3513 -10355.3316 679.3852 0.0000 0.0000 0.0000 -8719.7156 0.0000 -8719.7156 -8719.7156 0.0000 442.7344 414.2415 1000000.0000 442.7344 414.2415
ENERGY: 3000 59.9495 217.5402 672.7595 10.9497 -10507.5157 699.9676 0.0000 0.0000 0.0000 -8846.3493 0.0000 -8846.3493 -8846.3493 0.0000 462.1674 437.7195 1000000.0000 462.1674 437.7195
ENERGY: 4000 64.5443 221.9796 672.9049 11.6345 -10561.3633 694.4270 0.0000 0.0000 0.0000 -8895.8730 0.0000 -8895.8730 -8895.8730 0.0000 467.9398 441.8197 1000000.0000 467.9398 441.8197
ENERGY: 5000 60.5628 221.2450 670.8103 10.8382 -10618.4210 691.3763 0.0000 0.0000 0.0000 -8963.5885 0.0000 -8963.5885 -8963.5885 0.0000 466.6921 440.8817 1000000.0000 466.6921 440.8817
TCL: Running for 500000 steps
ETITLE: TS BOND ANGLE DIHED IMPRP ELECT VDW BOUNDARY MISC KINETIC TOTAL TEMP POTENTIAL TOTAL3 TEMPAVG PRESSURE GPRESSURE VOLUME PRESSAVG GPRESSAVG
ENERGY: 5000 60.5628 221.2450 670.8103 10.8382 -10618.4210 691.3763 0.0000 0.0000 0.0000 -8963.5885 0.0000 -8963.5885 -8963.6433 0.0000 -6.4232 -5.6170 1000000.0000 -6.4232 -5.6170
ENERGY: 105000 224.4782 686.2059 716.0719 47.7707 -8970.5800 220.3112 0.0000 0.0000 1903.9419 -5171.8002 295.5297 -7075.7421 -5155.4460 300.4849 8.3055 9.2105 1000000.0000 -0.7817 -0.7843
ENERGY: 205000 237.4406 667.9170 752.6129 44.7426 -9002.8902 242.5418 0.0000 0.0000 1872.6539 -5184.9814 290.6731 -7057.6353 -5174.1283 300.9420 23.8022 24.6085 1000000.0000 -0.0734 -0.0720
ENERGY: 305000 256.9503 676.3434 728.1530 38.4698 -9015.5264 269.1008 0.0000 0.0000 1917.4380 -5129.0711 297.6245 -7046.5091 -5114.4569 299.1577 -1.5195 -1.7604 1000000.0000 0.8363 0.8390
ENERGY: 405000 224.0152 689.3543 730.9581 45.1808 -9067.1787 232.5193 0.0000 0.0000 1926.4111 -5218.7399 299.0173 -7145.1510 -5205.0659 302.2106 -1.7241 -1.4664 1000000.0000 1.0990 1.1013
ENERGY: 505000 260.0353 718.7125 714.0020 45.0144 -9122.1651 282.7245 0.0000 0.0000 1929.1397 -5172.5367 299.4409 -7101.6764 -5158.8450 299.0713 -15.8776 -15.3446 1000000.0000 -0.3355 -0.3376
